tests/data/power_flow/multi-source-with-angle/sym_output.json
{
  "version": "1.0",
  "type": "sym_output",
  "is_batch": false,
  "attributes": {},
  "data": {
    "node": [
      {
        "id": 1,
        "u_pu": 1.0,
        "u": 10500.0,
        "u_angle": 0.0
      },
      {
        "id": 2,
        "u_pu": 1.0,
        "u": 400.0,
        "u_angle": -5.759586531581287
      }
    ],
    "transformer": [
      {
        "id": 3,
        "loading": 0.0,
        "p_from": 0.0,
        "q_from": 0.0,
        "s_from": 0.0,
        "p_to": 0.0,
        "q_to": 0.0,
        "s_to": 0.0
      }
    ]
  }
}
